<?xml version="1.0" encoding="UTF-8"?>

<additional xmlns:xsi="http://www.w3.org/2001/XMLSchema-instance" xsi:noNamespaceSchemaLocation="http://sumo.dlr.de/xsd/additional_file.xsd"><poly id="b0" type="building" color="90,102,171" fill="1" layer="-1.00" shape="105,105 400,105 400,393 105,393 105,105"/>
<poly id="b1" type="building" color="90,102,171" fill="1" layer="-1.00" shape="410,105 696,105 696,393 410,393 410,105"/>
<poly id="b2" type="building" color="90,102,171" fill="1" layer="-1.00" shape="706,105 991,105 991,393 706,393 706,105"/>
<poly id="b3" type="building" color="90,102,171" fill="1" layer="-1.00" shape="1001,105 1290,105 1290,393 1001,393 1001,105"/>
<poly id="b4" type="building" color="90,102,171" fill="1" layer="-1.00" shape="1300,105 1588,105 1588,393 1300,393 1300,105"/>
<poly id="b5" type="building" color="90,102,171" fill="1" layer="-1.00" shape="1598,105 1886,105 1886,393 1598,393 1598,105"/>
<poly id="b6" type="building" color="90,102,171" fill="1" layer="-1.00" shape="1896,105 2183,105 2183,393 1896,393 1896,105"/>
<poly id="b7" type="building" color="90,102,171" fill="1" layer="-1.00" shape="2193,105 2479,105 2479,393 2193,393 2193,105"/>
<poly id="b8" type="building" color="90,102,171" fill="1" layer="-1.00" shape="2489,105 2784,105 2784,393 2489,393 2489,105"/>
<poly id="b9" type="building" color="90,102,171" fill="1" layer="-1.00" shape="2794,105 3087,105 3087,393 2794,393 2794,105"/>
<poly id="b10" type="building" color="90,102,171" fill="1" layer="-1.00" shape="3097,105 3383,105 3383,393 3097,393 3097,105"/>
<poly id="b11" type="building" color="90,102,171" fill="1" layer="-1.00" shape="3393,105 3687,105 3687,393 3393,393 3393,105"/>
<poly id="b12" type="building" color="90,102,171" fill="1" layer="-1.00" shape="3697,105 3988,105 3988,393 3697,393 3697,105"/>
<poly id="b13" type="building" color="90,102,171" fill="1" layer="-1.00" shape="3998,105 4283,105 4283,393 3998,393 3998,105"/>
<poly id="b14" type="building" color="90,102,171" fill="1" layer="-1.00" shape="4293,105 4578,105 4578,393 4293,393 4293,105"/>
<poly id="b15" type="building" color="90,102,171" fill="1" layer="-1.00" shape="4588,105 4874,105 4874,393 4588,393 4588,105"/>
<poly id="b16" type="building" color="90,102,171" fill="1" layer="-1.00" shape="105,403 400,403 400,691 105,691 105,403"/>
<poly id="b17" type="building" color="90,102,171" fill="1" layer="-1.00" shape="410,403 696,403 696,691 410,691 410,403"/>
<poly id="b18" type="building" color="90,102,171" fill="1" layer="-1.00" shape="706,403 991,403 991,691 706,691 706,403"/>
<poly id="b19" type="building" color="90,102,171" fill="1" layer="-1.00" shape="1001,403 1290,403 1290,691 1001,691 1001,403"/>
<poly id="b20" type="building" color="90,102,171" fill="1" layer="-1.00" shape="1300,403 1588,403 1588,691 1300,691 1300,403"/>
<poly id="b21" type="building" color="90,102,171" fill="1" layer="-1.00" shape="1598,403 1886,403 1886,691 1598,691 1598,403"/>
<poly id="b22" type="building" color="90,102,171" fill="1" layer="-1.00" shape="1896,403 2183,403 2183,691 1896,691 1896,403"/>
<poly id="b23" type="building" color="90,102,171" fill="1" layer="-1.00" shape="2193,403 2479,403 2479,691 2193,691 2193,403"/>
<poly id="b24" type="building" color="90,102,171" fill="1" layer="-1.00" shape="2489,403 2784,403 2784,691 2489,691 2489,403"/>
<poly id="b25" type="building" color="90,102,171" fill="1" layer="-1.00" shape="2794,403 3087,403 3087,691 2794,691 2794,403"/>
<poly id="b26" type="building" color="90,102,171" fill="1" layer="-1.00" shape="3097,403 3383,403 3383,691 3097,691 3097,403"/>
<poly id="b27" type="building" color="90,102,171" fill="1" layer="-1.00" shape="3393,403 3687,403 3687,691 3393,691 3393,403"/>
<poly id="b28" type="building" color="90,102,171" fill="1" layer="-1.00" shape="3697,403 3988,403 3988,691 3697,691 3697,403"/>
<poly id="b29" type="building" color="90,102,171" fill="1" layer="-1.00" shape="3998,403 4283,403 4283,691 3998,691 3998,403"/>
<poly id="b30" type="building" color="90,102,171" fill="1" layer="-1.00" shape="4293,403 4578,403 4578,691 4293,691 4293,403"/>
<poly id="b31" type="building" color="90,102,171" fill="1" layer="-1.00" shape="4588,403 4874,403 4874,691 4588,691 4588,403"/>
<poly id="b32" type="building" color="90,102,171" fill="1" layer="-1.00" shape="105,701 400,701 400,994 105,994 105,701"/>
<poly id="b33" type="building" color="90,102,171" fill="1" layer="-1.00" shape="410,701 696,701 696,994 410,994 410,701"/>
<poly id="b34" type="building" color="90,102,171" fill="1" layer="-1.00" shape="706,701 991,701 991,994 706,994 706,701"/>
<poly id="b35" type="building" color="90,102,171" fill="1" layer="-1.00" shape="1001,701 1290,701 1290,994 1001,994 1001,701"/>
<poly id="b36" type="building" color="90,102,171" fill="1" layer="-1.00" shape="1300,701 1588,701 1588,994 1300,994 1300,701"/>
<poly id="b37" type="building" color="90,102,171" fill="1" layer="-1.00" shape="1598,701 1886,701 1886,994 1598,994 1598,701"/>
<poly id="b38" type="building" color="90,102,171" fill="1" layer="-1.00" shape="1896,701 2183,701 2183,994 1896,994 1896,701"/>
<poly id="b39" type="building" color="90,102,171" fill="1" layer="-1.00" shape="2193,701 2479,701 2479,994 2193,994 2193,701"/>
<poly id="b40" type="building" color="90,102,171" fill="1" layer="-1.00" shape="2489,701 2784,701 2784,994 2489,994 2489,701"/>
<poly id="b41" type="building" color="90,102,171" fill="1" layer="-1.00" shape="2794,701 3087,701 3087,994 2794,994 2794,701"/>
<poly id="b42" type="building" color="90,102,171" fill="1" layer="-1.00" shape="3097,701 3383,701 3383,994 3097,994 3097,701"/>
<poly id="b43" type="building" color="90,102,171" fill="1" layer="-1.00" shape="3393,701 3687,701 3687,994 3393,994 3393,701"/>
<poly id="b44" type="building" color="90,102,171" fill="1" layer="-1.00" shape="3697,701 3988,701 3988,994 3697,994 3697,701"/>
<poly id="b45" type="building" color="90,102,171" fill="1" layer="-1.00" shape="3998,701 4283,701 4283,994 3998,994 3998,701"/>
<poly id="b46" type="building" color="90,102,171" fill="1" layer="-1.00" shape="4293,701 4578,701 4578,994 4293,994 4293,701"/>
<poly id="b47" type="building" color="90,102,171" fill="1" layer="-1.00" shape="4588,701 4874,701 4874,994 4588,994 4588,701"/>
<poly id="b48" type="building" color="90,102,171" fill="1" layer="-1.00" shape="105,1004 400,1004 400,1298 105,1298 105,1004"/>
<poly id="b49" type="building" color="90,102,171" fill="1" layer="-1.00" shape="410,1004 696,1004 696,1298 410,1298 410,1004"/>
<poly id="b50" type="building" color="90,102,171" fill="1" layer="-1.00" shape="706,1004 991,1004 991,1298 706,1298 706,1004"/>
<poly id="b51" type="building" color="90,102,171" fill="1" layer="-1.00" shape="1001,1004 1290,1004 1290,1298 1001,1298 1001,1004"/>
<poly id="b52" type="building" color="90,102,171" fill="1" layer="-1.00" shape="1300,1004 1588,1004 1588,1298 1300,1298 1300,1004"/>
<poly id="b53" type="building" color="90,102,171" fill="1" layer="-1.00" shape="1598,1004 1886,1004 1886,1298 1598,1298 1598,1004"/>
<poly id="b54" type="building" color="90,102,171" fill="1" layer="-1.00" shape="1896,1004 2183,1004 2183,1298 1896,1298 1896,1004"/>
<poly id="b55" type="building" color="90,102,171" fill="1" layer="-1.00" shape="2193,1004 2479,1004 2479,1298 2193,1298 2193,1004"/>
<poly id="b56" type="building" color="90,102,171" fill="1" layer="-1.00" shape="2489,1004 2784,1004 2784,1298 2489,1298 2489,1004"/>
<poly id="b57" type="building" color="90,102,171" fill="1" layer="-1.00" shape="2794,1004 3087,1004 3087,1298 2794,1298 2794,1004"/>
<poly id="b58" type="building" color="90,102,171" fill="1" layer="-1.00" shape="3097,1004 3383,1004 3383,1298 3097,1298 3097,1004"/>
<poly id="b59" type="building" color="90,102,171" fill="1" layer="-1.00" shape="3393,1004 3687,1004 3687,1298 3393,1298 3393,1004"/>
<poly id="b60" type="building" color="90,102,171" fill="1" layer="-1.00" shape="3697,1004 3988,1004 3988,1298 3697,1298 3697,1004"/>
<poly id="b61" type="building" color="90,102,171" fill="1" layer="-1.00" shape="3998,1004 4283,1004 4283,1298 3998,1298 3998,1004"/>
<poly id="b62" type="building" color="90,102,171" fill="1" layer="-1.00" shape="4293,1004 4578,1004 4578,1298 4293,1298 4293,1004"/>
<poly id="b63" type="building" color="90,102,171" fill="1" layer="-1.00" shape="4588,1004 4874,1004 4874,1298 4588,1298 4588,1004"/>
<poly id="b64" type="building" color="90,102,171" fill="1" layer="-1.00" shape="105,1308 400,1308 400,1593 105,1593 105,1308"/>
<poly id="b65" type="building" color="90,102,171" fill="1" layer="-1.00" shape="410,1308 696,1308 696,1593 410,1593 410,1308"/>
<poly id="b66" type="building" color="90,102,171" fill="1" layer="-1.00" shape="706,1308 991,1308 991,1593 706,1593 706,1308"/>
<poly id="b67" type="building" color="90,102,171" fill="1" layer="-1.00" shape="1001,1308 1290,1308 1290,1593 1001,1593 1001,1308"/>
<poly id="b68" type="building" color="90,102,171" fill="1" layer="-1.00" shape="1300,1308 1588,1308 1588,1593 1300,1593 1300,1308"/>
<poly id="b69" type="building" color="90,102,171" fill="1" layer="-1.00" shape="1598,1308 1886,1308 1886,1593 1598,1593 1598,1308"/>
<poly id="b70" type="building" color="90,102,171" fill="1" layer="-1.00" shape="1896,1308 2183,1308 2183,1593 1896,1593 1896,1308"/>
<poly id="b71" type="building" color="90,102,171" fill="1" layer="-1.00" shape="2193,1308 2479,1308 2479,1593 2193,1593 2193,1308"/>
<poly id="b72" type="building" color="90,102,171" fill="1" layer="-1.00" shape="2489,1308 2784,1308 2784,1593 2489,1593 2489,1308"/>
<poly id="b73" type="building" color="90,102,171" fill="1" layer="-1.00" shape="2794,1308 3087,1308 3087,1593 2794,1593 2794,1308"/>
<poly id="b74" type="building" color="90,102,171" fill="1" layer="-1.00" shape="3097,1308 3383,1308 3383,1593 3097,1593 3097,1308"/>
<poly id="b75" type="building" color="90,102,171" fill="1" layer="-1.00" shape="3393,1308 3687,1308 3687,1593 3393,1593 3393,1308"/>
<poly id="b76" type="building" color="90,102,171" fill="1" layer="-1.00" shape="3697,1308 3988,1308 3988,1593 3697,1593 3697,1308"/>
<poly id="b77" type="building" color="90,102,171" fill="1" layer="-1.00" shape="3998,1308 4283,1308 4283,1593 3998,1593 3998,1308"/>
<poly id="b78" type="building" color="90,102,171" fill="1" layer="-1.00" shape="4293,1308 4578,1308 4578,1593 4293,1593 4293,1308"/>
<poly id="b79" type="building" color="90,102,171" fill="1" layer="-1.00" shape="4588,1308 4874,1308 4874,1593 4588,1593 4588,1308"/>
<poly id="b80" type="building" color="90,102,171" fill="1" layer="-1.00" shape="105,1603 400,1603 400,1896 105,1896 105,1603"/>
<poly id="b81" type="building" color="90,102,171" fill="1" layer="-1.00" shape="410,1603 696,1603 696,1896 410,1896 410,1603"/>
<poly id="b82" type="building" color="90,102,171" fill="1" layer="-1.00" shape="706,1603 991,1603 991,1896 706,1896 706,1603"/>
<poly id="b83" type="building" color="90,102,171" fill="1" layer="-1.00" shape="1001,1603 1290,1603 1290,1896 1001,1896 1001,1603"/>
<poly id="b84" type="building" color="90,102,171" fill="1" layer="-1.00" shape="1300,1603 1588,1603 1588,1896 1300,1896 1300,1603"/>
<poly id="b85" type="building" color="90,102,171" fill="1" layer="-1.00" shape="1598,1603 1886,1603 1886,1896 1598,1896 1598,1603"/>
<poly id="b86" type="building" color="90,102,171" fill="1" layer="-1.00" shape="1896,1603 2183,1603 2183,1896 1896,1896 1896,1603"/>
<poly id="b87" type="building" color="90,102,171" fill="1" layer="-1.00" shape="2193,1603 2479,1603 2479,1896 2193,1896 2193,1603"/>
<poly id="b88" type="building" color="90,102,171" fill="1" layer="-1.00" shape="2489,1603 2784,1603 2784,1896 2489,1896 2489,1603"/>
<poly id="b89" type="building" color="90,102,171" fill="1" layer="-1.00" shape="2794,1603 3087,1603 3087,1896 2794,1896 2794,1603"/>
<poly id="b90" type="building" color="90,102,171" fill="1" layer="-1.00" shape="3097,1603 3383,1603 3383,1896 3097,1896 3097,1603"/>
<poly id="b91" type="building" color="90,102,171" fill="1" layer="-1.00" shape="3393,1603 3687,1603 3687,1896 3393,1896 3393,1603"/>
<poly id="b92" type="building" color="90,102,171" fill="1" layer="-1.00" shape="3697,1603 3988,1603 3988,1896 3697,1896 3697,1603"/>
<poly id="b93" type="building" color="90,102,171" fill="1" layer="-1.00" shape="3998,1603 4283,1603 4283,1896 3998,1896 3998,1603"/>
<poly id="b94" type="building" color="90,102,171" fill="1" layer="-1.00" shape="4293,1603 4578,1603 4578,1896 4293,1896 4293,1603"/>
<poly id="b95" type="building" color="90,102,171" fill="1" layer="-1.00" shape="4588,1603 4874,1603 4874,1896 4588,1896 4588,1603"/>
<poly id="b96" type="building" color="90,102,171" fill="1" layer="-1.00" shape="105,1906 400,1906 400,2194 105,2194 105,1906"/>
<poly id="b97" type="building" color="90,102,171" fill="1" layer="-1.00" shape="410,1906 696,1906 696,2194 410,2194 410,1906"/>
<poly id="b98" type="building" color="90,102,171" fill="1" layer="-1.00" shape="706,1906 991,1906 991,2194 706,2194 706,1906"/>
<poly id="b99" type="building" color="90,102,171" fill="1" layer="-1.00" shape="1001,1906 1290,1906 1290,2194 1001,2194 1001,1906"/>
<poly id="b100" type="building" color="90,102,171" fill="1" layer="-1.00" shape="1300,1906 1588,1906 1588,2194 1300,2194 1300,1906"/>
<poly id="b101" type="building" color="90,102,171" fill="1" layer="-1.00" shape="1598,1906 1886,1906 1886,2194 1598,2194 1598,1906"/>
<poly id="b102" type="building" color="90,102,171" fill="1" layer="-1.00" shape="1896,1906 2183,1906 2183,2194 1896,2194 1896,1906"/>
<poly id="b103" type="building" color="90,102,171" fill="1" layer="-1.00" shape="2193,1906 2479,1906 2479,2194 2193,2194 2193,1906"/>
<poly id="b104" type="building" color="90,102,171" fill="1" layer="-1.00" shape="2489,1906 2784,1906 2784,2194 2489,2194 2489,1906"/>
<poly id="b105" type="building" color="90,102,171" fill="1" layer="-1.00" shape="2794,1906 3087,1906 3087,2194 2794,2194 2794,1906"/>
<poly id="b106" type="building" color="90,102,171" fill="1" layer="-1.00" shape="3097,1906 3383,1906 3383,2194 3097,2194 3097,1906"/>
<poly id="b107" type="building" color="90,102,171" fill="1" layer="-1.00" shape="3393,1906 3687,1906 3687,2194 3393,2194 3393,1906"/>
<poly id="b108" type="building" color="90,102,171" fill="1" layer="-1.00" shape="3697,1906 3988,1906 3988,2194 3697,2194 3697,1906"/>
<poly id="b109" type="building" color="90,102,171" fill="1" layer="-1.00" shape="3998,1906 4283,1906 4283,2194 3998,2194 3998,1906"/>
<poly id="b110" type="building" color="90,102,171" fill="1" layer="-1.00" shape="4293,1906 4578,1906 4578,2194 4293,2194 4293,1906"/>
<poly id="b111" type="building" color="90,102,171" fill="1" layer="-1.00" shape="4588,1906 4874,1906 4874,2194 4588,2194 4588,1906"/>
<poly id="b112" type="building" color="90,102,171" fill="1" layer="-1.00" shape="105,2204 400,2204 400,2499 105,2499 105,2204"/>
<poly id="b113" type="building" color="90,102,171" fill="1" layer="-1.00" shape="410,2204 696,2204 696,2499 410,2499 410,2204"/>
<poly id="b114" type="building" color="90,102,171" fill="1" layer="-1.00" shape="706,2204 991,2204 991,2499 706,2499 706,2204"/>
<poly id="b115" type="building" color="90,102,171" fill="1" layer="-1.00" shape="1001,2204 1290,2204 1290,2499 1001,2499 1001,2204"/>
<poly id="b116" type="building" color="90,102,171" fill="1" layer="-1.00" shape="1300,2204 1588,2204 1588,2499 1300,2499 1300,2204"/>
<poly id="b117" type="building" color="90,102,171" fill="1" layer="-1.00" shape="1598,2204 1886,2204 1886,2499 1598,2499 1598,2204"/>
<poly id="b118" type="building" color="90,102,171" fill="1" layer="-1.00" shape="1896,2204 2183,2204 2183,2499 1896,2499 1896,2204"/>
<poly id="b119" type="building" color="90,102,171" fill="1" layer="-1.00" shape="2193,2204 2479,2204 2479,2499 2193,2499 2193,2204"/>
<poly id="b120" type="building" color="90,102,171" fill="1" layer="-1.00" shape="2489,2204 2784,2204 2784,2499 2489,2499 2489,2204"/>
<poly id="b121" type="building" color="90,102,171" fill="1" layer="-1.00" shape="2794,2204 3087,2204 3087,2499 2794,2499 2794,2204"/>
<poly id="b122" type="building" color="90,102,171" fill="1" layer="-1.00" shape="3097,2204 3383,2204 3383,2499 3097,2499 3097,2204"/>
<poly id="b123" type="building" color="90,102,171" fill="1" layer="-1.00" shape="3393,2204 3687,2204 3687,2499 3393,2499 3393,2204"/>
<poly id="b124" type="building" color="90,102,171" fill="1" layer="-1.00" shape="3697,2204 3988,2204 3988,2499 3697,2499 3697,2204"/>
<poly id="b125" type="building" color="90,102,171" fill="1" layer="-1.00" shape="3998,2204 4283,2204 4283,2499 3998,2499 3998,2204"/>
<poly id="b126" type="building" color="90,102,171" fill="1" layer="-1.00" shape="4293,2204 4578,2204 4578,2499 4293,2499 4293,2204"/>
<poly id="b127" type="building" color="90,102,171" fill="1" layer="-1.00" shape="4588,2204 4874,2204 4874,2499 4588,2499 4588,2204"/>
<poly id="b128" type="building" color="90,102,171" fill="1" layer="-1.00" shape="105,2509 400,2509 400,2802 105,2802 105,2509"/>
<poly id="b129" type="building" color="90,102,171" fill="1" layer="-1.00" shape="410,2509 696,2509 696,2802 410,2802 410,2509"/>
<poly id="b130" type="building" color="90,102,171" fill="1" layer="-1.00" shape="706,2509 991,2509 991,2802 706,2802 706,2509"/>
<poly id="b131" type="building" color="90,102,171" fill="1" layer="-1.00" shape="1001,2509 1290,2509 1290,2802 1001,2802 1001,2509"/>
<poly id="b132" type="building" color="90,102,171" fill="1" layer="-1.00" shape="1300,2509 1588,2509 1588,2802 1300,2802 1300,2509"/>
<poly id="b133" type="building" color="90,102,171" fill="1" layer="-1.00" shape="1598,2509 1886,2509 1886,2802 1598,2802 1598,2509"/>
<poly id="b134" type="building" color="90,102,171" fill="1" layer="-1.00" shape="1896,2509 2183,2509 2183,2802 1896,2802 1896,2509"/>
<poly id="b135" type="building" color="90,102,171" fill="1" layer="-1.00" shape="2193,2509 2479,2509 2479,2802 2193,2802 2193,2509"/>
<poly id="b136" type="building" color="90,102,171" fill="1" layer="-1.00" shape="2489,2509 2784,2509 2784,2802 2489,2802 2489,2509"/>
<poly id="b137" type="building" color="90,102,171" fill="1" layer="-1.00" shape="2794,2509 3087,2509 3087,2802 2794,2802 2794,2509"/>
<poly id="b138" type="building" color="90,102,171" fill="1" layer="-1.00" shape="3097,2509 3383,2509 3383,2802 3097,2802 3097,2509"/>
<poly id="b139" type="building" color="90,102,171" fill="1" layer="-1.00" shape="3393,2509 3687,2509 3687,2802 3393,2802 3393,2509"/>
<poly id="b140" type="building" color="90,102,171" fill="1" layer="-1.00" shape="3697,2509 3988,2509 3988,2802 3697,2802 3697,2509"/>
<poly id="b141" type="building" color="90,102,171" fill="1" layer="-1.00" shape="3998,2509 4283,2509 4283,2802 3998,2802 3998,2509"/>
<poly id="b142" type="building" color="90,102,171" fill="1" layer="-1.00" shape="4293,2509 4578,2509 4578,2802 4293,2802 4293,2509"/>
<poly id="b143" type="building" color="90,102,171" fill="1" layer="-1.00" shape="4588,2509 4874,2509 4874,2802 4588,2802 4588,2509"/>
<poly id="b144" type="building" color="90,102,171" fill="1" layer="-1.00" shape="105,2812 400,2812 400,3103 105,3103 105,2812"/>
<poly id="b145" type="building" color="90,102,171" fill="1" layer="-1.00" shape="410,2812 696,2812 696,3103 410,3103 410,2812"/>
<poly id="b146" type="building" color="90,102,171" fill="1" layer="-1.00" shape="706,2812 991,2812 991,3103 706,3103 706,2812"/>
<poly id="b147" type="building" color="90,102,171" fill="1" layer="-1.00" shape="1001,2812 1290,2812 1290,3103 1001,3103 1001,2812"/>
<poly id="b148" type="building" color="90,102,171" fill="1" layer="-1.00" shape="1300,2812 1588,2812 1588,3103 1300,3103 1300,2812"/>
<poly id="b149" type="building" color="90,102,171" fill="1" layer="-1.00" shape="1598,2812 1886,2812 1886,3103 1598,3103 1598,2812"/>
<poly id="b150" type="building" color="90,102,171" fill="1" layer="-1.00" shape="1896,2812 2183,2812 2183,3103 1896,3103 1896,2812"/>
<poly id="b151" type="building" color="90,102,171" fill="1" layer="-1.00" shape="2193,2812 2479,2812 2479,3103 2193,3103 2193,2812"/>
<poly id="b152" type="building" color="90,102,171" fill="1" layer="-1.00" shape="2489,2812 2784,2812 2784,3103 2489,3103 2489,2812"/>
<poly id="b153" type="building" color="90,102,171" fill="1" layer="-1.00" shape="2794,2812 3087,2812 3087,3103 2794,3103 2794,2812"/>
<poly id="b154" type="building" color="90,102,171" fill="1" layer="-1.00" shape="3097,2812 3383,2812 3383,3103 3097,3103 3097,2812"/>
<poly id="b155" type="building" color="90,102,171" fill="1" layer="-1.00" shape="3393,2812 3687,2812 3687,3103 3393,3103 3393,2812"/>
<poly id="b156" type="building" color="90,102,171" fill="1" layer="-1.00" shape="3697,2812 3988,2812 3988,3103 3697,3103 3697,2812"/>
<poly id="b157" type="building" color="90,102,171" fill="1" layer="-1.00" shape="3998,2812 4283,2812 4283,3103 3998,3103 3998,2812"/>
<poly id="b158" type="building" color="90,102,171" fill="1" layer="-1.00" shape="4293,2812 4578,2812 4578,3103 4293,3103 4293,2812"/>
<poly id="b159" type="building" color="90,102,171" fill="1" layer="-1.00" shape="4588,2812 4874,2812 4874,3103 4588,3103 4588,2812"/>
<poly id="b160" type="building" color="90,102,171" fill="1" layer="-1.00" shape="105,3113 400,3113 400,3401 105,3401 105,3113"/>
<poly id="b161" type="building" color="90,102,171" fill="1" layer="-1.00" shape="410,3113 696,3113 696,3401 410,3401 410,3113"/>
<poly id="b162" type="building" color="90,102,171" fill="1" layer="-1.00" shape="706,3113 991,3113 991,3401 706,3401 706,3113"/>
<poly id="b163" type="building" color="90,102,171" fill="1" layer="-1.00" shape="1001,3113 1290,3113 1290,3401 1001,3401 1001,3113"/>
<poly id="b164" type="building" color="90,102,171" fill="1" layer="-1.00" shape="1300,3113 1588,3113 1588,3401 1300,3401 1300,3113"/>
<poly id="b165" type="building" color="90,102,171" fill="1" layer="-1.00" shape="1598,3113 1886,3113 1886,3401 1598,3401 1598,3113"/>
<poly id="b166" type="building" color="90,102,171" fill="1" layer="-1.00" shape="1896,3113 2183,3113 2183,3401 1896,3401 1896,3113"/>
<poly id="b167" type="building" color="90,102,171" fill="1" layer="-1.00" shape="2193,3113 2479,3113 2479,3401 2193,3401 2193,3113"/>
<poly id="b168" type="building" color="90,102,171" fill="1" layer="-1.00" shape="2489,3113 2784,3113 2784,3401 2489,3401 2489,3113"/>
<poly id="b169" type="building" color="90,102,171" fill="1" layer="-1.00" shape="2794,3113 3087,3113 3087,3401 2794,3401 2794,3113"/>
<poly id="b170" type="building" color="90,102,171" fill="1" layer="-1.00" shape="3097,3113 3383,3113 3383,3401 3097,3401 3097,3113"/>
<poly id="b171" type="building" color="90,102,171" fill="1" layer="-1.00" shape="3393,3113 3687,3113 3687,3401 3393,3401 3393,3113"/>
<poly id="b172" type="building" color="90,102,171" fill="1" layer="-1.00" shape="3697,3113 3988,3113 3988,3401 3697,3401 3697,3113"/>
<poly id="b173" type="building" color="90,102,171" fill="1" layer="-1.00" shape="3998,3113 4283,3113 4283,3401 3998,3401 3998,3113"/>
<poly id="b174" type="building" color="90,102,171" fill="1" layer="-1.00" shape="4293,3113 4578,3113 4578,3401 4293,3401 4293,3113"/>
<poly id="b175" type="building" color="90,102,171" fill="1" layer="-1.00" shape="4588,3113 4874,3113 4874,3401 4588,3401 4588,3113"/>
<poly id="b176" type="building" color="90,102,171" fill="1" layer="-1.00" shape="105,3411 400,3411 400,3703 105,3703 105,3411"/>
<poly id="b177" type="building" color="90,102,171" fill="1" layer="-1.00" shape="410,3411 696,3411 696,3703 410,3703 410,3411"/>
<poly id="b178" type="building" color="90,102,171" fill="1" layer="-1.00" shape="706,3411 991,3411 991,3703 706,3703 706,3411"/>
<poly id="b179" type="building" color="90,102,171" fill="1" layer="-1.00" shape="1001,3411 1290,3411 1290,3703 1001,3703 1001,3411"/>
<poly id="b180" type="building" color="90,102,171" fill="1" layer="-1.00" shape="1300,3411 1588,3411 1588,3703 1300,3703 1300,3411"/>
<poly id="b181" type="building" color="90,102,171" fill="1" layer="-1.00" shape="1598,3411 1886,3411 1886,3703 1598,3703 1598,3411"/>
<poly id="b182" type="building" color="90,102,171" fill="1" layer="-1.00" shape="1896,3411 2183,3411 2183,3703 1896,3703 1896,3411"/>
<poly id="b183" type="building" color="90,102,171" fill="1" layer="-1.00" shape="2193,3411 2479,3411 2479,3703 2193,3703 2193,3411"/>
<poly id="b184" type="building" color="90,102,171" fill="1" layer="-1.00" shape="2489,3411 2784,3411 2784,3703 2489,3703 2489,3411"/>
<poly id="b185" type="building" color="90,102,171" fill="1" layer="-1.00" shape="2794,3411 3087,3411 3087,3703 2794,3703 2794,3411"/>
<poly id="b186" type="building" color="90,102,171" fill="1" layer="-1.00" shape="3097,3411 3383,3411 3383,3703 3097,3703 3097,3411"/>
<poly id="b187" type="building" color="90,102,171" fill="1" layer="-1.00" shape="3393,3411 3687,3411 3687,3703 3393,3703 3393,3411"/>
<poly id="b188" type="building" color="90,102,171" fill="1" layer="-1.00" shape="3697,3411 3988,3411 3988,3703 3697,3703 3697,3411"/>
<poly id="b189" type="building" color="90,102,171" fill="1" layer="-1.00" shape="3998,3411 4283,3411 4283,3703 3998,3703 3998,3411"/>
<poly id="b190" type="building" color="90,102,171" fill="1" layer="-1.00" shape="4293,3411 4578,3411 4578,3703 4293,3703 4293,3411"/>
<poly id="b191" type="building" color="90,102,171" fill="1" layer="-1.00" shape="4588,3411 4874,3411 4874,3703 4588,3703 4588,3411"/>
<poly id="b192" type="building" color="90,102,171" fill="1" layer="-1.00" shape="105,3713 400,3713 400,4007 105,4007 105,3713"/>
<poly id="b193" type="building" color="90,102,171" fill="1" layer="-1.00" shape="410,3713 696,3713 696,4007 410,4007 410,3713"/>
<poly id="b194" type="building" color="90,102,171" fill="1" layer="-1.00" shape="706,3713 991,3713 991,4007 706,4007 706,3713"/>
<poly id="b195" type="building" color="90,102,171" fill="1" layer="-1.00" shape="1001,3713 1290,3713 1290,4007 1001,4007 1001,3713"/>
<poly id="b196" type="building" color="90,102,171" fill="1" layer="-1.00" shape="1300,3713 1588,3713 1588,4007 1300,4007 1300,3713"/>
<poly id="b197" type="building" color="90,102,171" fill="1" layer="-1.00" shape="1598,3713 1886,3713 1886,4007 1598,4007 1598,3713"/>
<poly id="b198" type="building" color="90,102,171" fill="1" layer="-1.00" shape="1896,3713 2183,3713 2183,4007 1896,4007 1896,3713"/>
<poly id="b199" type="building" color="90,102,171" fill="1" layer="-1.00" shape="2193,3713 2479,3713 2479,4007 2193,4007 2193,3713"/>
<poly id="b200" type="building" color="90,102,171" fill="1" layer="-1.00" shape="2489,3713 2784,3713 2784,4007 2489,4007 2489,3713"/>
<poly id="b201" type="building" color="90,102,171" fill="1" layer="-1.00" shape="2794,3713 3087,3713 3087,4007 2794,4007 2794,3713"/>
<poly id="b202" type="building" color="90,102,171" fill="1" layer="-1.00" shape="3097,3713 3383,3713 3383,4007 3097,4007 3097,3713"/>
<poly id="b203" type="building" color="90,102,171" fill="1" layer="-1.00" shape="3393,3713 3687,3713 3687,4007 3393,4007 3393,3713"/>
<poly id="b204" type="building" color="90,102,171" fill="1" layer="-1.00" shape="3697,3713 3988,3713 3988,4007 3697,4007 3697,3713"/>
<poly id="b205" type="building" color="90,102,171" fill="1" layer="-1.00" shape="3998,3713 4283,3713 4283,4007 3998,4007 3998,3713"/>
<poly id="b206" type="building" color="90,102,171" fill="1" layer="-1.00" shape="4293,3713 4578,3713 4578,4007 4293,4007 4293,3713"/>
<poly id="b207" type="building" color="90,102,171" fill="1" layer="-1.00" shape="4588,3713 4874,3713 4874,4007 4588,4007 4588,3713"/>
<poly id="b208" type="building" color="90,102,171" fill="1" layer="-1.00" shape="105,4017 400,4017 400,4306 105,4306 105,4017"/>
<poly id="b209" type="building" color="90,102,171" fill="1" layer="-1.00" shape="410,4017 696,4017 696,4306 410,4306 410,4017"/>
<poly id="b210" type="building" color="90,102,171" fill="1" layer="-1.00" shape="706,4017 991,4017 991,4306 706,4306 706,4017"/>
<poly id="b211" type="building" color="90,102,171" fill="1" layer="-1.00" shape="1001,4017 1290,4017 1290,4306 1001,4306 1001,4017"/>
<poly id="b212" type="building" color="90,102,171" fill="1" layer="-1.00" shape="1300,4017 1588,4017 1588,4306 1300,4306 1300,4017"/>
<poly id="b213" type="building" color="90,102,171" fill="1" layer="-1.00" shape="1598,4017 1886,4017 1886,4306 1598,4306 1598,4017"/>
<poly id="b214" type="building" color="90,102,171" fill="1" layer="-1.00" shape="1896,4017 2183,4017 2183,4306 1896,4306 1896,4017"/>
<poly id="b215" type="building" color="90,102,171" fill="1" layer="-1.00" shape="2193,4017 2479,4017 2479,4306 2193,4306 2193,4017"/>
<poly id="b216" type="building" color="90,102,171" fill="1" layer="-1.00" shape="2489,4017 2784,4017 2784,4306 2489,4306 2489,4017"/>
<poly id="b217" type="building" color="90,102,171" fill="1" layer="-1.00" shape="2794,4017 3087,4017 3087,4306 2794,4306 2794,4017"/>
<poly id="b218" type="building" color="90,102,171" fill="1" layer="-1.00" shape="3097,4017 3383,4017 3383,4306 3097,4306 3097,4017"/>
<poly id="b219" type="building" color="90,102,171" fill="1" layer="-1.00" shape="3393,4017 3687,4017 3687,4306 3393,4306 3393,4017"/>
<poly id="b220" type="building" color="90,102,171" fill="1" layer="-1.00" shape="3697,4017 3988,4017 3988,4306 3697,4306 3697,4017"/>
<poly id="b221" type="building" color="90,102,171" fill="1" layer="-1.00" shape="3998,4017 4283,4017 4283,4306 3998,4306 3998,4017"/>
<poly id="b222" type="building" color="90,102,171" fill="1" layer="-1.00" shape="4293,4017 4578,4017 4578,4306 4293,4306 4293,4017"/>
<poly id="b223" type="building" color="90,102,171" fill="1" layer="-1.00" shape="4588,4017 4874,4017 4874,4306 4588,4306 4588,4017"/>
<poly id="b224" type="building" color="90,102,171" fill="1" layer="-1.00" shape="105,4316 400,4316 400,4601 105,4601 105,4316"/>
<poly id="b225" type="building" color="90,102,171" fill="1" layer="-1.00" shape="410,4316 696,4316 696,4601 410,4601 410,4316"/>